7
Coordinates from ORCA-job input_initial_path E   0.000000000000
  C      -0.730561      0.433082     -0.001220
  C       0.567328     -0.309239      0.006790
  H       0.513581     -1.117452      0.733930
  H       1.390526      0.356358      0.251939
  H       0.730208     -0.756745     -0.972021
  O      -0.867943      1.600455      0.226583
  H      -1.603139     -0.206458     -0.246000
7
Coordinates from ORCA-job input_initial_path E   0.000000000000
  C      -0.691989      0.385158     -0.032006
  C       0.507670     -0.422521     -0.098414
  H       0.709515     -1.103032      0.723610
  H       1.244393      0.683332      0.451171
  H       0.572544     -1.005262     -1.011098
  O      -0.722640      1.569937      0.319793
  H      -1.619494     -0.107612     -0.353056
7
Coordinates from ORCA-job input_initial_path E   0.000000000000
  C      -0.646962      0.337485     -0.069849
  C       0.446287     -0.536488     -0.175125
  H       0.946335     -1.034993      0.647025
  H       1.059499      0.940759      0.654246
  H       0.394909     -1.243569     -0.994627
  O      -0.588052      1.523206      0.399524
  H      -1.612016      0.013599     -0.461194
7
Coordinates from ORCA-job input_initial_path E   0.000000000000
  C      -0.586173      0.292326     -0.110058
  C       0.372687     -0.663358     -0.211854
  H       1.156803     -0.911612      0.486529
  H       0.836029      1.142205      0.839662
  H       0.231817     -1.461968     -0.922119
  O      -0.448661      1.461640      0.475536
  H      -1.562502      0.140767     -0.557697
7
Coordinates from ORCA-job input_initial_path E   0.000000000000
  C      -0.504600      0.240205     -0.141582
  C       0.328080     -0.782185     -0.231597
  H       1.282298     -0.783763      0.270172
  H       0.570597      1.335258      0.990867
  H       0.080849     -1.650367     -0.810667
  O      -0.292308      1.378160      0.558557
  H      -1.464915      0.262691     -0.635749
