3
Coordinates from ORCA-job input_initial_path E   0.000000000000
  H      -1.113911      0.000000     -0.000000
  C      -0.026666     -0.000000      0.000000
  N       1.140576      0.000000     -0.000000
3
Coordinates from ORCA-job input_initial_path E   0.000000000000
  H      -1.099535      0.161048     -0.161048
  C       0.061466     -0.311059      0.311059
  N       1.038068      0.150011     -0.150011
3
Coordinates from ORCA-job input_initial_path E   0.000000000000
  H      -0.926577      0.292379     -0.292379
  C       0.220711     -0.525292      0.525292
  N       0.705866      0.232912     -0.232912
3
Coordinates from ORCA-job input_initial_path E   0.000000000000
  H      -0.876858      0.464794     -0.464794
  C       0.518183     -0.646631      0.646631
  N       0.358675      0.181838     -0.181838
3
Coordinates from ORCA-job input_initial_path E   0.000000000000
  H      -0.696855      0.573822     -0.573822
  C       0.734155     -0.604536      0.604536
  N      -0.037300      0.030715     -0.030715
