10

H    1.99757808828569      0.25022586507917      0.72957579847856
C    1.44666788654273      0.06088176074125     -0.18975506731892
H    1.67115809398389      0.82690156694531     -0.93346420198265
H    1.76410010378270     -0.89580894800398     -0.61702931492419
C   -0.03218812888253     -0.00668250402989      0.08117960952503
O   -0.47126229461002     -0.06383203315654      1.21590571064657
C   -0.93671505604705     -0.00759565576779     -1.12174123739234
H   -0.88761294036774      0.97611724740670     -1.59852429171257
H   -0.58940208311204     -0.73299176093053     -1.85998395179737
H   -1.96332366957567     -0.22151553828368     -0.83026305352213